20670(2qbs)
     RDKit          3D

 27 29  0  0  0  0  0  0  0  0999 V2000
   41.1639   17.7415   12.1780 O   0  0  0  0  0  0  0  0  0  0  0  0
   40.3722   17.6063   13.1368 C   0  0  0  0  0  0  0  0  0  0  0  0
   39.3254   18.2679   13.3145 O   0  0  0  0  0  0  0  0  0  0  0  0
   40.7175   16.5469   14.1863 C   0  0  0  0  0  0  0  0  0  0  0  0
   41.9134   15.8492   13.8454 O   0  0  0  0  0  0  0  0  0  0  0  0
   42.3248   14.9326   14.7526 C   0  0  0  0  0  0  0  0  0  0  0  0
   41.8775   13.6145   14.7795 C   0  0  0  0  0  0  0  0  0  0  0  0
   40.6644   12.9348   13.4743 Br  0  0  0  0  0  0  0  0  0  0  0  0
   42.3473   12.8247   15.8292 C   0  0  0  0  0  0  0  0  0  0  0  0
   42.0577   11.4350   16.1601 C   0  0  0  0  0  0  0  0  0  0  0  0
   43.0417   10.5800   16.6715 C   0  0  0  0  0  0  0  0  0  0  0  0
   42.7506    9.2417   16.9424 C   0  0  0  0  0  0  0  0  0  0  0  0
   41.4814    8.7321   16.6725 C   0  0  0  0  0  0  0  0  0  0  0  0
   40.4829    9.5699   16.1594 C   0  0  0  0  0  0  0  0  0  0  0  0
   39.1835    9.1385   15.8446 N   0  0  0  0  0  0  0  0  0  0  0  0
   38.9114    7.7621   15.4291 C   0  0  0  0  0  0  0  0  0  0  0  0
   39.6099    7.4194   14.0884 C   0  0  0  0  0  0  0  0  0  0  0  0
   39.2402    6.0199   13.5606 C   0  0  0  0  0  0  0  0  0  0  0  0
   37.7153    5.8364   13.4582 C   0  0  0  0  0  0  0  0  0  0  0  0
   37.0173    6.1412   14.7978 C   0  0  0  0  0  0  0  0  0  0  0  0
   37.3829    7.5402   15.3340 C   0  0  0  0  0  0  0  0  0  0  0  0
   40.7764   10.9164   15.9496 C   0  0  0  0  0  0  0  0  0  0  0  0
   43.4366   13.7822   16.8006 S   0  0  0  0  0  0  0  0  0  0  0  0
   43.2081   15.1991   15.7938 C   0  0  0  0  0  0  0  0  0  0  0  0
   43.9470   16.4235   16.1845 C   0  0  0  0  0  0  0  0  0  0  0  0
   44.6954   16.3793   17.1852 O   0  0  0  0  0  0  0  0  0  0  0  0
   43.8111   17.4654   15.5045 O   0  0  0  0  0  0  0  0  0  0  0  0
  1  2  1  0
  2  3  2  0
  2  4  1  0
  4  5  1  0
  5  6  1  0
  6  7  1  0
  6 24  2  0
  7  8  1  0
  7  9  2  0
  9 10  1  0
  9 23  1  0
 10 11  2  0
 10 22  1  0
 11 12  1  0
 12 13  2  0
 13 14  1  0
 14 15  1  0
 14 22  2  0
 15 16  1  0
 16 17  1  0
 16 21  1  0
 17 18  1  0
 18 19  1  0
 19 20  1  0
 20 21  1  0
 23 24  1  0
 24 25  1  0
 25 26  1  0
 25 27  2  0
M  CHG  2   1  -1  26  -1
M  END
>  <i_m_stars>  (1) 
3

>  <r_user_dG.exp>  (1) 
-9.08323641464599

>  <ptp1b_ 23469 Relative Activity>  (1) 
-0.9

>  <ptp1b_ 23469 Relative Activity Error>  (1) 
1.3

>  <Total Formal Charge>  (1) 
-2

>  <Favorite_cresset>  (1) 
false

>  <MW_cresset>  (1) 
452.3

>  <#Atoms_cresset>  (1) 
27

>  <SlogP_cresset>  (1) 
5.2

>  <TPSA_cresset>  (1) 
101.5

>  <Flexibility_cresset>  (1) 
5

>  <Rof5_cresset>  (1) 
1

>  <Confs_cresset>  (1) 
0

>  <Poses_cresset>  (1) 
0

$$$$
