60
     RDKit          3D

 25 27  0  0  0  0  0  0  0  0999 V2000
    3.9650  -49.5043    7.2172 O   0  0  0  0  0  0  0  0  0  0  0  0
    3.1647  -48.6934    6.6860 C   0  0  0  0  0  0  0  0  0  0  0  0
    3.5469  -47.5550    6.3203 O   0  0  0  0  0  0  0  0  0  0  0  0
    1.7422  -49.1031    6.4894 C   0  0  0  0  0  0  0  0  0  0  0  0
    1.3189  -50.6778    7.1278 S   0  0  0  0  0  0  0  0  0  0  0  0
   -0.3298  -50.5386    6.5641 C   0  0  0  0  0  0  0  0  0  0  0  0
   -1.3498  -51.5036    6.6886 C   0  0  0  0  0  0  0  0  0  0  0  0
   -2.6263  -51.2396    6.1671 C   0  0  0  0  0  0  0  0  0  0  0  0
   -2.8774  -50.0178    5.5363 C   0  0  0  0  0  0  0  0  0  0  0  0
   -1.8563  -49.0471    5.4330 C   0  0  0  0  0  0  0  0  0  0  0  0
   -0.5461  -49.2759    5.9301 C   0  0  0  0  0  0  0  0  0  0  0  0
    0.6515  -48.4545    5.9075 C   0  0  0  0  0  0  0  0  0  0  0  0
    0.6868  -47.0728    5.3244 C   0  0  0  0  0  0  0  0  0  0  0  0
    0.5835  -45.9866    6.4079 C   0  0  0  0  0  0  0  0  0  0  0  0
   -0.7243  -46.0605    7.2196 C   0  0  0  0  0  0  0  0  0  0  0  0
   -1.8113  -45.6523    6.3994 O   0  0  0  0  0  0  0  0  0  0  0  0
   -3.0550  -45.5539    6.9867 C   0  0  0  0  0  0  0  0  0  0  0  0
   -3.3644  -46.1029    8.2530 C   0  0  0  0  0  0  0  0  0  0  0  0
   -4.6428  -45.9429    8.8135 C   0  0  0  0  0  0  0  0  0  0  0  0
   -4.9320  -46.5613   10.1729 C   0  0  0  0  0  0  0  0  0  0  0  0
   -5.6327  -45.2134    8.1178 C   0  0  0  0  0  0  0  0  0  0  0  0
   -7.1917  -44.9681    8.8275 Cl  0  0  0  0  0  0  0  0  0  0  0  0
   -5.3388  -44.6781    6.8441 C   0  0  0  0  0  0  0  0  0  0  0  0
   -6.3832  -43.8851    6.0760 C   0  0  0  0  0  0  0  0  0  0  0  0
   -4.0597  -44.8664    6.2827 C   0  0  0  0  0  0  0  0  0  0  0  0
  1  2  1  0
  2  3  2  0
  2  4  1  0
  4  5  1  0
  4 12  2  0
  5  6  1  0
  6  7  2  0
  6 11  1  0
  7  8  1  0
  8  9  2  0
  9 10  1  0
 10 11  2  0
 11 12  1  0
 12 13  1  0
 13 14  1  0
 14 15  1  0
 15 16  1  0
 16 17  1  0
 17 18  2  0
 17 25  1  0
 18 19  1  0
 19 20  1  0
 19 21  2  0
 21 22  1  0
 21 23  1  0
 23 24  1  0
 23 25  2  0
M  CHG  1   1  -1
M  END
>  <r_user_dG.exp>  (1) 
-8.91509126815632

>  <Favorite_cresset>  (1) 
false

>  <MW_cresset>  (1) 
373.9

>  <#Atoms_cresset>  (1) 
25

>  <SlogP_cresset>  (1) 
5.9

>  <TPSA_cresset>  (1) 
49.4

>  <Flexibility_cresset>  (1) 
4.8

>  <Rof5_cresset>  (1) 
1

>  <Confs_cresset>  (1) 
0

>  <Poses_cresset>  (1) 
0

$$$$
