1h1q
     RDKit          3D

 24 27  0  0  0  0  0  0  0  0999 V2000
    1.3901   29.1077    6.7935 C   0  0  0  0  0  0  0  0  0  0  0  0
   -1.6911   31.9130    8.0794 C   0  0  0  0  0  0  0  0  0  0  0  0
   -0.7437   26.3748    8.8319 C   0  0  0  0  0  0  0  0  0  0  0  0
   -1.3142   25.5567    9.9914 C   0  0  0  0  0  0  0  0  0  0  0  0
   -1.1214   24.0589    9.6854 C   0  0  0  0  0  0  0  0  0  0  0  0
   -1.5824   23.1795   10.8502 C   0  0  0  0  0  0  0  0  0  0  0  0
   -0.8551   23.5463   12.1491 C   0  0  0  0  0  0  0  0  0  0  0  0
   -1.0780   25.0277   12.4857 C   0  0  0  0  0  0  0  0  0  0  0  0
   -0.6321   25.9351   11.3273 C   0  0  0  0  0  0  0  0  0  0  0  0
    4.6903   25.7129    5.8380 C   0  0  0  0  0  0  0  0  0  0  0  0
    4.6667   25.1395    7.1233 C   0  0  0  0  0  0  0  0  0  0  0  0
    3.9496   25.7658    8.1576 C   0  0  0  0  0  0  0  0  0  0  0  0
    3.2460   26.9556    7.8985 C   0  0  0  0  0  0  0  0  0  0  0  0
    0.6302   28.2313    7.4508 N   0  0  0  0  0  0  0  0  0  0  0  0
   -0.4898   28.6252    8.0923 C   0  0  0  0  0  0  0  0  0  0  0  0
   -1.1796   27.7315    8.8832 O   0  0  0  0  0  0  0  0  0  0  0  0
   -0.8660   29.9818    8.0000 C   0  0  0  0  0  0  0  0  0  0  0  0
   -1.9251   30.7129    8.5212 N   0  0  0  0  0  0  0  0  0  0  0  0
   -0.5542   32.0464    7.3306 N   0  0  0  0  0  0  0  0  0  0  0  0
   -0.0249   30.7863    7.2610 C   0  0  0  0  0  0  0  0  0  0  0  0
    1.1172   30.4049    6.6113 N   0  0  0  0  0  0  0  0  0  0  0  0
    2.5827   28.6807    6.3360 N   0  0  0  0  0  0  0  0  0  0  0  0
    3.2365   27.5251    6.6032 C   0  0  0  0  0  0  0  0  0  0  0  0
    3.9871   26.9068    5.5819 C   0  0  0  0  0  0  0  0  0  0  0  0
  1 14  2  0
  1 21  1  0
  1 22  1  0
  2 18  2  0
  2 19  1  0
  3  4  1  0
  3 16  1  0
  4  5  1  0
  4  9  1  0
  5  6  1  0
  6  7  1  0
  7  8  1  0
  8  9  1  0
 10 11  2  0
 10 24  1  0
 11 12  1  0
 12 13  2  0
 13 23  1  0
 14 15  1  0
 15 16  1  0
 15 17  2  0
 17 18  1  0
 17 20  1  0
 19 20  1  0
 20 21  2  0
 22 23  1  0
 23 24  2  0
M  END
>  <r_user_dG.exp>  (1) 
-8.179

>  <Favorite_cresset>  (1) 
false

>  <MW_cresset>  (1) 
323.4

>  <#Atoms_cresset>  (1) 
24

>  <SlogP_cresset>  (1) 
4.1

>  <TPSA_cresset>  (1) 
75.7

>  <Flexibility_cresset>  (1) 
4

>  <Rof5_cresset>  (1) 
0

>  <Confs_cresset>  (1) 
0

>  <Poses_cresset>  (1) 
0

$$$$
