17124-1
     RDKit          3D

 27 28  0  0  0  0  0  0  0  0999 V2000
   24.0816   12.3916   30.2423 C   0  0  0  0  0  0  0  0  0  0  0  0
   23.3500   11.0657   30.4628 C   0  0  0  0  0  0  0  0  0  0  0  0
   22.2121   11.3274   31.2794 O   0  0  0  0  0  0  0  0  0  0  0  0
   21.4127   10.2773   31.6976 C   0  0  0  0  0  0  0  0  0  0  0  0
   21.7567    9.0266   31.2850 N   0  0  0  0  0  0  0  0  0  0  0  0
   20.9811    7.9971   31.6572 C   0  0  0  0  0  0  0  0  0  0  0  0
   19.8706    8.1421   32.4769 C   0  0  0  0  0  0  0  0  0  0  0  0
   19.5217    9.4143   32.8937 C   0  0  0  0  0  0  0  0  0  0  0  0
   18.3827    9.4958   33.6863 N   0  0  0  0  0  0  0  0  0  0  0  0
   20.2923   10.5202   32.5003 C   0  0  0  0  0  0  0  0  0  0  0  0
   19.9657   11.8905   32.8774 C   0  0  0  0  0  0  0  0  0  0  0  0
   19.7135   12.9814   33.1712 N   0  0  0  0  0  0  0  0  0  0  0  0
   21.4435    6.8153   31.1146 N   0  0  0  0  0  0  0  0  0  0  0  0
   20.8639    5.6146   31.0308 C   0  0  0  0  0  0  0  0  0  0  0  0
   19.7396    5.3500   31.4512 O   0  0  0  0  0  0  0  0  0  0  0  0
   21.6499    4.5466   30.2798 C   0  0  0  0  0  0  0  0  0  0  0  0
   23.0247    4.2587   30.8770 C   0  0  0  0  0  0  0  0  0  0  0  0
   24.1218    5.0797   30.5737 C   0  0  0  0  0  0  0  0  0  0  0  0
   23.8940    6.1755   29.7600 O   0  0  0  0  0  0  0  0  0  0  0  0
   24.9260    7.1419   29.5741 C   0  0  0  0  0  0  0  0  0  0  0  0
   25.3756    4.7488   31.1028 C   0  0  0  0  0  0  0  0  0  0  0  0
   25.5283    3.6468   31.9432 C   0  0  0  0  0  0  0  0  0  0  0  0
   27.2648    3.2511   32.6230 Br  0  0  0  0  0  0  0  0  0  0  0  0
   24.4329    2.8399   32.2701 C   0  0  0  0  0  0  0  0  0  0  0  0
   23.1819    3.1565   31.7231 C   0  0  0  0  0  0  0  0  0  0  0  0
   24.6457    1.7801   33.1306 O   0  0  0  0  0  0  0  0  0  0  0  0
   23.7084    0.7066   33.1601 C   0  0  0  0  0  0  0  0  0  0  0  0
  1  2  1  0
  2  3  1  0
  3  4  1  0
  4  5  2  0
  4 10  1  0
  5  6  1  0
  6  7  2  0
  6 13  1  0
  7  8  1  0
  8  9  1  0
  8 10  2  0
 10 11  1  0
 11 12  3  0
 13 14  1  0
 14 15  2  0
 14 16  1  0
 16 17  1  0
 17 18  2  0
 17 25  1  0
 18 19  1  0
 18 21  1  0
 19 20  1  0
 21 22  2  0
 22 23  1  0
 22 24  1  0
 24 25  2  0
 24 26  1  0
 26 27  1  0
M  END
>  <i_m_stars>  (1) 
0

>  <r_user_dG.exp>  (1) 
-9.675922

>  <Favorite_cresset>  (1) 
false

>  <MW_cresset>  (1) 
435.3

>  <#Atoms_cresset>  (1) 
27

>  <SlogP_cresset>  (1) 
3

>  <TPSA_cresset>  (1) 
119.5

>  <Flexibility_cresset>  (1) 
4.8

>  <Rof5_cresset>  (1) 
0

>  <Confs_cresset>  (1) 
0

>  <Poses_cresset>  (1) 
0

$$$$
