p38a_3fly
     RDKit          3D

 25 27  0  0  0  0  0  0  0  0999 V2000
   34.9076   39.1154   21.5907 C   0  0  0  0  0  0  0  0  0  0  0  0
   34.0709   36.9986   22.3846 C   0  0  0  0  0  0  0  0  0  0  0  0
   34.4455   39.7277   22.7024 N   0  0  0  0  0  0  0  0  0  0  0  0
   34.7548   37.7275   21.3918 C   0  0  0  0  0  0  0  0  0  0  0  0
   35.2950   37.0103   20.2460 C   0  0  0  0  0  0  0  0  0  0  0  0
   35.1390   35.6721   20.1250 C   0  0  0  0  0  0  0  0  0  0  0  0
   34.3682   34.9095   21.1164 C   0  0  0  0  0  0  0  0  0  0  0  0
   33.8227   38.9512   23.5893 C   0  0  0  0  0  0  0  0  0  0  0  0
   32.6093   38.9831   25.8341 C   0  0  0  0  0  0  0  0  0  0  0  0
   33.0071   39.6254   27.1688 C   0  0  0  0  0  0  0  0  0  0  0  0
   31.1036   39.1058   25.5754 C   0  0  0  0  0  0  0  0  0  0  0  0
   36.3552   35.5188   18.0595 C   0  0  0  0  0  0  0  0  0  0  0  0
   35.7369   35.5446   16.7957 C   0  0  0  0  0  0  0  0  0  0  0  0
   36.4063   36.0920   15.6859 C   0  0  0  0  0  0  0  0  0  0  0  0
   37.7125   36.5912   15.8323 C   0  0  0  0  0  0  0  0  0  0  0  0
   38.3545   36.5250   17.0835 C   0  0  0  0  0  0  0  0  0  0  0  0
   37.6744   36.0012   18.1998 C   0  0  0  0  0  0  0  0  0  0  0  0
   38.3423   37.1505   14.7742 F   0  0  0  0  0  0  0  0  0  0  0  0
   38.2865   35.9641   19.4063 F   0  0  0  0  0  0  0  0  0  0  0  0
   35.6958   34.9289   19.1092 O   0  0  0  0  0  0  0  0  0  0  0  0
   34.1461   33.7090   20.9621 O   0  0  0  0  0  0  0  0  0  0  0  0
   33.9060   35.5872   22.2067 N   0  0  0  0  0  0  0  0  0  0  0  0
   33.1842   34.8573   23.2623 C   0  0  0  0  0  0  0  0  0  0  0  0
   33.6031   37.6404   23.4789 N   0  0  0  0  0  0  0  0  0  0  0  0
   33.3560   39.5693   24.7304 N   0  0  0  0  0  0  0  0  0  0  0  0
  1  3  2  0
  1  4  1  0
  2  4  2  0
  2 22  1  0
  2 24  1  0
  3  8  1  0
  4  5  1  0
  5  6  2  0
  6  7  1  0
  6 20  1  0
  7 21  2  0
  7 22  1  0
  8 24  2  0
  8 25  1  0
  9 10  1  0
  9 11  1  0
  9 25  1  0
 12 13  2  0
 12 17  1  0
 12 20  1  0
 13 14  1  0
 14 15  2  0
 15 16  1  0
 15 18  1  0
 16 17  2  0
 17 19  1  0
 22 23  1  0
M  END
>  <i_m_stars>  (1) 
2

>  <r_user_dG.exp>  (1) 
-11.423

>  <Total Formal Charge>  (1) 
0.0

>  <Favorite_cresset>  (1) 
false

>  <MW_cresset>  (1) 
346.3

>  <#Atoms_cresset>  (1) 
25

>  <SlogP_cresset>  (1) 
3.5

>  <TPSA_cresset>  (1) 
67.3

>  <Flexibility_cresset>  (1) 
2.3

>  <Rof5_cresset>  (1) 
0

>  <Confs_cresset>  (1) 
0

>  <Poses_cresset>  (1) 
0

$$$$
